Info: SIMULATION PARAMETERS:
Info: TIMESTEP               1
Info: NUMBER OF STEPS        0
Info: STEPS PER CYCLE        20
Info: FIRST LDB TIMESTEP     100
Info: LAST LDB TIMESTEP     -1
Info: HOM BACKGROUND SCALING 1
Info: MIN ATOMS PER PATCH    40
Info: INITIAL TEMPERATURE    300
Info: CENTER OF MASS MOVING INITIALLY? NO
Info: REMOVING CENTER OF MASS DRIFT DURING SIMULATION
Info: DIELECTRIC             1
Info: EXCLUDE                SCALED ONE-FOUR
Info: 1-4 ELECTROSTATICS SCALED BY 1
Info: MODIFIED 1-4 VDW PARAMETERS WILL BE USED
Info: DCD FILENAME           RFEP15.dcd
Info: DCD FREQUENCY          10000
Info: DCD FIRST STEP         10000
Info: XST FILENAME           RFEP15.xst
Info: XST FREQUENCY          10000
Info: NO VELOCITY DCD OUTPUT
Info: NO FORCE DCD OUTPUT
Info: OUTPUT FILENAME        RFEP15
Info: BINARY OUTPUT FILES WILL BE USED
Info: RESTART FILENAME       RFEP15.restart
Info: RESTART FREQUENCY      100000
Info: BINARY RESTART FILES WILL BE USED
Info: SWITCHING ACTIVE
Info: VDW FORCE SWITCHING ACTIVE
Info: SWITCHING ON           10
Info: SWITCHING OFF          12
Info: PAIRLIST DISTANCE      12
Info: PAIRLIST SHRINK RATE   0.01
Info: PAIRLIST GROW RATE     0.01
Info: PAIRLIST TRIGGER       0.3
Info: PAIRLISTS PER CYCLE    2
Info: PAIRLISTS ENABLED
Info: MARGIN                 0
Info: HYDROGEN GROUP CUTOFF  2.8
Info: PATCH DIMENSION        14.8
Info: ENERGY OUTPUT STEPS    10000
Info: CROSSTERM ENERGY INCLUDED IN DIHEDRAL
Info: TIMING OUTPUT STEPS    100000
Info: PRESSURE OUTPUT STEPS  10000
Info: COLLECTIVE VARIABLES CALCULATION REQUESTED
Info: COLLECTIVE VARIABLES CONFIGURATION   ../sample_outputs/DBC_restraint_RFEP.colvars
Info: LANGEVIN DYNAMICS ACTIVE
Info: LANGEVIN TEMPERATURE   300
Info: LANGEVIN USING BBK INTEGRATOR
Info: LANGEVIN DAMPING COEFFICIENT IS 1 INVERSE PS
Info: LANGEVIN DYNAMICS APPLIED TO HYDROGENS
Info: USING VERLET I (r-RESPA) MTS SCHEME.
Info: C1 SPLITTING OF LONG RANGE ELECTROSTATICS
Info: PLACING ATOMS IN PATCHES BY HYDROGEN GROUPS
Info: RIGID BONDS TO HYDROGEN : ALL
Info:         ERROR TOLERANCE : 1e-06
Info:          MAX ITERATIONS : 400
Info: RIGID WATER USING SETTLE ALGORITHM
Info: RANDOM NUMBER SEED     1667861481
Info: USE HYDROGEN BONDS?    NO
Info: COORDINATE PDB         ../../common/structures/phenol_gas_phase.pdb
Info: STRUCTURE FILE         ../../common/structures/phenol_gas_phase.psf
Info: PARAMETER file: CHARMM format!
Info: PARAMETERS             ../../common/CHARMM36m_FF/par_all36_prot.prm
Info: PARAMETERS             ../../common/CHARMM36m_FF/par_all36_carb.prm
Info: PARAMETERS             ../../common/CHARMM36m_FF/par_all36_lipid.prm
Info: PARAMETERS             ../../common/CHARMM36m_FF/par_all36_na.prm
Info: PARAMETERS             ../../common/CHARMM36m_FF/par_all36_cgenff.prm
Info: PARAMETERS             ../../common/CHARMM36m_FF/toppar_water_ions_namd.str
Info: USING ARITHMETIC MEAN TO COMBINE L-J SIGMA PARAMETERS
Info: SKIPPING rtf SECTION IN STREAM FILE
Info: SUMMARY OF PARAMETERS:
Info: 965 BONDS
Info: 2852 ANGLES
Info: 6992 DIHEDRAL
Info: 198 IMPROPER
Info: 6 CROSSTERM
Info: 357 VDW
Info: 81 VDW_PAIRS
Info: 0 NBTHOLE_PAIRS
Info: STRUCTURE SUMMARY:
Info: 13 ATOMS
Info: 13 BONDS
Info: 19 ANGLES
Info: 26 DIHEDRALS
Info: 0 IMPROPERS
Info: 0 CROSSTERMS
Info: 0 EXCLUSIONS
Info: 6 RIGID BONDS
Info: 33 DEGREES OF FREEDOM
Info: 7 HYDROGEN GROUPS
Info: 2 ATOMS IN LARGEST HYDROGEN GROUP
Info: 7 MIGRATION GROUPS
Info: 2 ATOMS IN LARGEST MIGRATION GROUP
Info: TOTAL MASS = 94.1134 amu
Info: TOTAL CHARGE = 1.49012e-08 e
Info: ADDED 55 IMPLICIT EXCLUSIONS
Info: NONBONDED TABLE R-SQUARED SPACING: 0.0625
Info: NONBONDED TABLE SIZE: 769 POINTS
Info: ORIGINAL ATOMS MINMAX IS -2.334 -1.322 -2.268  2.557 1.573 2.255
Info: ADJUSTED ATOMS MINMAX IS -2.0265 -1.43475 -2.34175  1.9285 1.46275 2.28575
Info: REMOVING COM VELOCITY 2.91749 1.04109 1.72521
TCL: Minimizing for 100 steps
ETITLE: TS BOND ANGLE DIHED IMPRP ELECT VDW BOUNDARY MISC KINETIC TOTAL TEMP POTENTIAL TOTAL3 TEMPAVG
ENERGY: 0 2.0858 2.2385 3.4610 0.0000 -9.9146 10.4720 0.0000 0.0000 0.0000 8.3427 0.0000 8.3427 8.3427 0.0000
ENERGY: 20 1.2720 0.3882 0.2043 0.0000 -9.7898 10.1645 0.0000 0.0000 0.0000 2.2393 0.0000 2.2393 2.2393 0.0000
ENERGY: 40 2.0937 0.5930 0.1037 0.0000 -9.5201 10.0169 0.0000 0.0000 0.0000 3.2873 0.0000 3.2873 3.2873 0.0000
ENERGY: 60 1.3253 0.0485 0.0111 0.0000 -9.6699 9.9472 0.0000 0.0000 0.0000 1.6622 0.0000 1.6622 1.6622 0.0000
ENERGY: 80 1.3122 0.0468 0.0075 0.0000 -9.6810 9.9687 0.0000 0.0000 0.0000 1.6542 0.0000 1.6542 1.6542 0.0000
ENERGY: 100 1.2870 0.0451 0.0057 0.0000 -9.6854 10.0006 0.0000 0.0000 0.0000 1.6530 0.0000 1.6530 1.6530 0.0000
TCL: Running for 12300000 steps
ETITLE: TS BOND ANGLE DIHED IMPRP ELECT VDW BOUNDARY MISC KINETIC TOTAL TEMP POTENTIAL TOTAL3 TEMPAVG
ENERGY: 10000 2.6131 1.8067 7.6635 0.0000 -9.7143 10.2836 0.0000 0.0000 8.7555 21.4083 267.0297 12.6527 21.4747 306.1835
ENERGY: 2090000 1.9543 3.1375 1.2278 0.0000 -9.9947 10.5587 0.0000 0.0000 6.8906 13.7744 210.1529 6.8837 13.8713 303.2004
ENERGY: 4170000 2.3830 4.6362 2.6965 0.0000 -10.3939 9.9515 0.0000 1.0576 9.6675 19.9984 294.8420 10.3310 20.1967 361.1921
ENERGY: 6260000 4.0374 2.3650 3.4265 0.0000 -9.3111 10.5298 0.0000 0.9395 7.1349 19.1220 217.6031 11.9871 19.1342 284.5846
ENERGY: 8340000 4.6944 3.5247 3.0206 0.0000 -9.9106 9.9990 0.0000 0.0025 12.6803 24.0109 386.7294 11.3305 24.0694 306.8325
ENERGY: 10420000 4.5070 2.2760 1.6235 0.0000 -9.4389 8.6286 0.0000 0.0003 11.2655 18.8619 343.5793 7.5964 18.9201 298.1923
