Info: SIMULATION PARAMETERS:
Info: TIMESTEP               1
Info: NUMBER OF STEPS        0
Info: STEPS PER CYCLE        20
Info: FIRST LDB TIMESTEP     100
Info: LAST LDB TIMESTEP     -1
Info: HOM BACKGROUND SCALING 1
Info: MIN ATOMS PER PATCH    40
Info: INITIAL TEMPERATURE    300
Info: CENTER OF MASS MOVING INITIALLY? NO
Info: REMOVING CENTER OF MASS DRIFT DURING SIMULATION
Info: DIELECTRIC             1
Info: EXCLUDE                SCALED ONE-FOUR
Info: 1-4 ELECTROSTATICS SCALED BY 1
Info: MODIFIED 1-4 VDW PARAMETERS WILL BE USED
Info: DCD FILENAME           RFEP15.dcd
Info: DCD FREQUENCY          10000
Info: DCD FIRST STEP         10000
Info: XST FILENAME           RFEP15.xst
Info: XST FREQUENCY          10000
Info: NO VELOCITY DCD OUTPUT
Info: NO FORCE DCD OUTPUT
Info: OUTPUT FILENAME        RFEP15
Info: BINARY OUTPUT FILES WILL BE USED
Info: RESTART FILENAME       RFEP15.restart
Info: RESTART FREQUENCY      100000
Info: BINARY RESTART FILES WILL BE USED
Info: SWITCHING ACTIVE
Info: VDW FORCE SWITCHING ACTIVE
Info: SWITCHING ON           10
Info: SWITCHING OFF          12
Info: PAIRLIST DISTANCE      12
Info: PAIRLIST SHRINK RATE   0.01
Info: PAIRLIST GROW RATE     0.01
Info: PAIRLIST TRIGGER       0.3
Info: PAIRLISTS PER CYCLE    2
Info: PAIRLISTS ENABLED
Info: MARGIN                 0
Info: HYDROGEN GROUP CUTOFF  2.8
Info: PATCH DIMENSION        14.8
Info: ENERGY OUTPUT STEPS    10000
Info: CROSSTERM ENERGY INCLUDED IN DIHEDRAL
Info: TIMING OUTPUT STEPS    100000
Info: PRESSURE OUTPUT STEPS  10000
Info: COLLECTIVE VARIABLES CALCULATION REQUESTED
Info: COLLECTIVE VARIABLES CONFIGURATION   ../sample_outputs/DBC_restraint_RFEP.colvars
Info: LANGEVIN DYNAMICS ACTIVE
Info: LANGEVIN TEMPERATURE   300
Info: LANGEVIN USING BBK INTEGRATOR
Info: LANGEVIN DAMPING COEFFICIENT IS 1 INVERSE PS
Info: LANGEVIN DYNAMICS APPLIED TO HYDROGENS
Info: USING VERLET I (r-RESPA) MTS SCHEME.
Info: C1 SPLITTING OF LONG RANGE ELECTROSTATICS
Info: PLACING ATOMS IN PATCHES BY HYDROGEN GROUPS
Info: RIGID BONDS TO HYDROGEN : ALL
Info:         ERROR TOLERANCE : 1e-06
Info:          MAX ITERATIONS : 400
Info: RIGID WATER USING SETTLE ALGORITHM
Info: RANDOM NUMBER SEED     1667921571
Info: USE HYDROGEN BONDS?    NO
Info: COORDINATE PDB         ../../common/structures/phenol_gas_phase.pdb
Info: STRUCTURE FILE         ../../common/structures/phenol_gas_phase.psf
Info: PARAMETER file: CHARMM format!
Info: PARAMETERS             ../../common/CHARMM36m_FF/par_all36_prot.prm
Info: PARAMETERS             ../../common/CHARMM36m_FF/par_all36_carb.prm
Info: PARAMETERS             ../../common/CHARMM36m_FF/par_all36_lipid.prm
Info: PARAMETERS             ../../common/CHARMM36m_FF/par_all36_na.prm
Info: PARAMETERS             ../../common/CHARMM36m_FF/par_all36_cgenff.prm
Info: PARAMETERS             ../../common/CHARMM36m_FF/toppar_water_ions_namd.str
Info: USING ARITHMETIC MEAN TO COMBINE L-J SIGMA PARAMETERS
Info: SKIPPING rtf SECTION IN STREAM FILE
Info: SUMMARY OF PARAMETERS:
Info: 965 BONDS
Info: 2852 ANGLES
Info: 6992 DIHEDRAL
Info: 198 IMPROPER
Info: 6 CROSSTERM
Info: 357 VDW
Info: 81 VDW_PAIRS
Info: 0 NBTHOLE_PAIRS
Info: STRUCTURE SUMMARY:
Info: 13 ATOMS
Info: 13 BONDS
Info: 19 ANGLES
Info: 26 DIHEDRALS
Info: 0 IMPROPERS
Info: 0 CROSSTERMS
Info: 0 EXCLUSIONS
Info: 6 RIGID BONDS
Info: 33 DEGREES OF FREEDOM
Info: 7 HYDROGEN GROUPS
Info: 2 ATOMS IN LARGEST HYDROGEN GROUP
Info: 7 MIGRATION GROUPS
Info: 2 ATOMS IN LARGEST MIGRATION GROUP
Info: TOTAL MASS = 94.1134 amu
Info: TOTAL CHARGE = 1.49012e-08 e
Info: ADDED 55 IMPLICIT EXCLUSIONS
Info: NONBONDED TABLE R-SQUARED SPACING: 0.0625
Info: NONBONDED TABLE SIZE: 769 POINTS
Info: ORIGINAL ATOMS MINMAX IS -2.334 -1.322 -2.268  2.557 1.573 2.255
Info: ADJUSTED ATOMS MINMAX IS -2.0265 -1.43475 -2.34175  1.9285 1.46275 2.28575
Info: REMOVING COM VELOCITY 1.53212 -0.322225 -1.73615
TCL: Minimizing for 100 steps
ETITLE: TS BOND ANGLE DIHED IMPRP ELECT VDW BOUNDARY MISC KINETIC TOTAL TEMP POTENTIAL TOTAL3 TEMPAVG
ENERGY: 0 2.0858 2.2385 3.4610 0.0000 -9.9146 10.4720 0.0000 0.0000 0.0000 8.3427 0.0000 8.3427 8.3427 0.0000
ENERGY: 20 1.2720 0.3882 0.2043 0.0000 -9.7898 10.1645 0.0000 0.0000 0.0000 2.2393 0.0000 2.2393 2.2393 0.0000
ENERGY: 40 2.0937 0.5930 0.1037 0.0000 -9.5201 10.0169 0.0000 0.0000 0.0000 3.2873 0.0000 3.2873 3.2873 0.0000
ENERGY: 60 1.3253 0.0485 0.0111 0.0000 -9.6699 9.9472 0.0000 0.0000 0.0000 1.6622 0.0000 1.6622 1.6622 0.0000
ENERGY: 80 1.3122 0.0468 0.0075 0.0000 -9.6810 9.9687 0.0000 0.0000 0.0000 1.6542 0.0000 1.6542 1.6542 0.0000
ENERGY: 100 1.2870 0.0451 0.0057 0.0000 -9.6854 10.0006 0.0000 0.0000 0.0000 1.6530 0.0000 1.6530 1.6530 0.0000
TCL: Running for 12300000 steps
ETITLE: TS BOND ANGLE DIHED IMPRP ELECT VDW BOUNDARY MISC KINETIC TOTAL TEMP POTENTIAL TOTAL3 TEMPAVG
ENERGY: 10000 2.9391 2.2962 4.4956 0.0000 -10.1039 9.5734 0.0000 0.0000 10.0091 19.2095 305.2600 9.2004 19.2612 282.3534
ENERGY: 2470000 3.3331 1.9581 3.6243 0.0000 -9.8268 11.0852 0.0000 0.0000 6.8266 17.0003 208.1986 10.1738 17.0324 287.8910
ENERGY: 4930000 1.1837 2.6703 5.5903 0.0000 -9.9629 13.8674 0.0000 0.5865 10.5597 24.4950 322.0545 13.9352 24.4813 344.0209
ENERGY: 7380000 1.7106 2.0073 1.5503 0.0000 -9.9129 10.9749 0.0000 1.0119 8.5859 15.9280 261.8551 7.3422 16.0787 301.9585
ENERGY: 9840000 4.7309 3.2523 2.1442 0.0000 -9.8694 9.5025 0.0000 0.0302 6.4017 16.1924 195.2418 9.7907 16.1918 268.0506
ENERGY: 12300000 2.7301 3.1568 2.9224 0.0000 -9.5068 9.4023 0.0000 0.0000 8.9706 17.6754 273.5877 8.7048 17.7375 285.3799
